MOL1
  -MTS-   08261916193D 0   0.00000     0.00000     0

 23 26  0  0  0  0  0  0  0  0999 V2000
   -1.5070    0.0000   -0.8700 Cl  0  0  0  0  0  0  0  0  0  0  0  0
    0.0000    0.0000    0.0000 C   0  0  0  0  0  0  0  0  0  0  0  0
    0.0000   -0.0080    1.4000 C   0  0  0  0  0  0  0  0  0  0  0  0
    1.2120   -0.0080    2.1000 C   0  0  0  0  0  0  0  0  0  0  0  0
    2.4250    0.0000    1.4000 C   0  0  0  0  0  0  0  0  0  0  0  0
    2.4250    0.0080    0.0000 C   0  0  0  0  0  0  0  0  0  0  0  0
    1.2120    0.0080   -0.7000 C   0  0  0  0  0  0  0  0  0  0  0  0
    3.6500    0.0000    2.1070 N   0  0  0  0  0  0  0  0  0  0  0  0
    3.7430   -1.2170    2.9270 C   0  0  0  0  0  0  0  0  0  0  0  0
    5.0240   -1.2060    3.7810 C   0  0  0  0  0  0  0  0  0  0  0  0
    5.1190    0.0090    4.6040 N   0  0  0  0  0  0  0  0  0  0  0  0
    5.0240    1.2230    3.7810 C   0  0  0  0  0  0  0  0  0  0  0  0
    3.7430    1.2170    2.9270 C   0  0  0  0  0  0  0  0  0  0  0  0
    6.3970    0.0080    5.3310 C   0  0  0  0  0  0  0  0  0  0  0  0
    6.3020    0.9380    6.5170 C   0  0  0  0  0  0  0  0  0  0  0  0
    7.3290    1.4400    7.2150 C   0  0  0  0  0  0  0  0  0  0  0  0
    6.8510    2.2420    8.2180 N   0  0  0  0  0  0  0  0  0  0  0  0
    5.4030    2.2350    8.1320 N   0  0  0  0  0  0  0  0  0  0  0  0
    5.0570    1.4620    7.1230 C   0  0  0  0  0  0  0  0  0  0  0  0
    7.7040    2.8790    9.0790 C   0  0  0  0  0  0  0  0  0  0  0  0
    9.0340    2.7470    8.9800 C   0  0  0  0  0  0  0  0  0  0  0  0
    9.6180    1.8950    7.9200 C   0  0  0  0  0  0  0  0  0  0  0  0
    8.7920    1.2680    7.0720 C   0  0  0  0  0  0  0  0  0  0  0  0
  1  2  1  0  0  0  0
  2  3  2  0  0  0  0
  3  4  1  0  0  0  0
  4  5  2  0  0  0  0
  5  6  1  0  0  0  0
  6  7  2  0  0  0  0
  7  2  1  0  0  0  0
  5  8  1  0  0  0  0
  8  9  1  0  0  0  0
  9 10  1  0  0  0  0
 10 11  1  0  0  0  0
 11 12  1  0  0  0  0
 12 13  1  0  0  0  0
 13  8  1  0  0  0  0
 11 14  1  0  0  0  0
 14 15  1  0  0  0  0
 15 16  2  0  0  0  0
 16 17  1  0  0  0  0
 17 18  1  0  0  0  0
 18 19  2  0  0  0  0
 19 15  1  0  0  0  0
 17 20  1  0  0  0  0
 20 21  2  0  0  0  0
 21 22  1  0  0  0  0
 22 23  2  0  0  0  0
 23 16  1  0  0  0  0
M  END
$$$$
MOL12
  -MTS-   08261916193D 0   0.00000     0.00000     0

 23 26  0  0  0  0  0  0  0  0999 V2000
   -1.5070   -0.0180   -0.8700 Cl  0  0  0  0  0  0  0  0  0  0  0  0
    0.0000   -0.0080    0.0000 C   0  0  0  0  0  0  0  0  0  0  0  0
    0.0000   -0.0080    1.4000 C   0  0  0  0  0  0  0  0  0  0  0  0
    1.2120    0.0000    2.1000 C   0  0  0  0  0  0  0  0  0  0  0  0
    2.4250    0.0080    1.4000 C   0  0  0  0  0  0  0  0  0  0  0  0
    2.4250    0.0080    0.0000 C   0  0  0  0  0  0  0  0  0  0  0  0
    1.2120    0.0000   -0.7000 C   0  0  0  0  0  0  0  0  0  0  0  0
    1.2120    0.0000    3.5150 N   0  0  0  0  0  0  0  0  0  0  0  0
    0.5490   -1.2170    4.0050 C   0  0  0  0  0  0  0  0  0  0  0  0
    0.4500   -1.2060    5.5420 C   0  0  0  0  0  0  0  0  0  0  0  0
   -0.2150    0.0090    6.0350 N   0  0  0  0  0  0  0  0  0  0  0  0
    0.4500    1.2230    5.5410 C   0  0  0  0  0  0  0  0  0  0  0  0
    0.5490    1.2170    4.0050 C   0  0  0  0  0  0  0  0  0  0  0  0
   -0.2060    0.0080    7.5050 C   0  0  0  0  0  0  0  0  0  0  0  0
   -1.2800    0.9380    8.0160 C   0  0  0  0  0  0  0  0  0  0  0  0
   -1.3720    1.4400    9.2550 C   0  0  0  0  0  0  0  0  0  0  0  0
   -2.4790    2.2420    9.3420 N   0  0  0  0  0  0  0  0  0  0  0  0
   -3.1280    2.2350    8.0450 N   0  0  0  0  0  0  0  0  0  0  0  0
   -2.4270    1.4620    7.2410 C   0  0  0  0  0  0  0  0  0  0  0  0
   -2.7980    2.8790   10.5120 C   0  0  0  0  0  0  0  0  0  0  0  0
   -2.0480    2.7470   11.6140 C   0  0  0  0  0  0  0  0  0  0  0  0
   -0.8380    1.8960   11.5890 C   0  0  0  0  0  0  0  0  0  0  0  0
   -0.5160    1.2680   10.4500 C   0  0  0  0  0  0  0  0  0  0  0  0
  1  2  1  0  0  0  0
  2  3  2  0  0  0  0
  3  4  1  0  0  0  0
  4  5  2  0  0  0  0
  5  6  1  0  0  0  0
  6  7  2  0  0  0  0
  7  2  1  0  0  0  0
  4  8  1  0  0  0  0
  8  9  1  0  0  0  0
  9 10  1  0  0  0  0
 10 11  1  0  0  0  0
 11 12  1  0  0  0  0
 12 13  1  0  0  0  0
 13  8  1  0  0  0  0
 11 14  1  0  0  0  0
 14 15  1  0  0  0  0
 15 16  2  0  0  0  0
 16 17  1  0  0  0  0
 17 18  1  0  0  0  0
 18 19  2  0  0  0  0
 19 15  1  0  0  0  0
 17 20  1  0  0  0  0
 20 21  2  0  0  0  0
 21 22  1  0  0  0  0
 22 23  2  0  0  0  0
 23 16  1  0  0  0  0
M  END
$$$$
